 &NAMCTL
 SN_CFCTL%L_RUNSTAT       = F,
 SN_CFCTL%L_TRCSTAT       = F,
 SN_CFCTL%L_OCEOUT        = F,
 SN_CFCTL%L_LAYOUT        = F,
 SN_CFCTL%L_PRTCTL        = F,
 SN_CFCTL%L_PRTTRC        = F,
 SN_CFCTL%L_OASOUT        = F,
 SN_CFCTL%PROCMIN =           0,
 SN_CFCTL%PROCMAX =     1000000,
 SN_CFCTL%PROCINCR        =           1,
 SN_CFCTL%PTIMINCR        =           1,
 LN_TIMING       = F,
 LN_DIACFL       = F,
 NN_ISPLT        =           1,
 NN_JSPLT        =           1,
 NN_ICTLS        =           0,
 NN_ICTLE        =           0,
 NN_JCTLS        =           0,
 NN_JCTLE        =           0
 /
 &NAMCFG
 LN_READ_CFG     = T,
 CN_DOMCFG       = domain_cfg                                                                                                        
                                                                                                                                     
           ,
 LN_CLOSEA       = F,
 LN_WRITE_CFG    = F,
 CN_DOMCFG_OUT   = domain_cfg_out                                                                                                    
                                                                                                                                     
           ,
 LN_USE_JATTR    = F
 /
 &NAMMPP
 JPNI    =           0,
 JPNJ    =           0,
 NN_HLS  =           1,
 LN_NNOGATHER    = T,
 LN_LISTONLY     = F,
 NN_COMM =           2
 /
 &NAMEOS
 LN_TEOS10       = T,
 LN_EOS80        = F,
 LN_SEOS = F,
 RN_A0   =  0.165500000000000     ,
 RN_B0   =  0.765540000000000     ,
 RN_LAMBDA1      =  5.952000000000000E-002,
 RN_MU1  =  1.497000000000000E-004,
 RN_LAMBDA2      =  7.491400000000000E-004,
 RN_MU2  =  1.109000000000000E-005,
 RN_NU   =  2.434100000000000E-003
 /
 &NAMWAD
 LN_WD_IL        = F,
 LN_WD_DL        = F,
 RN_WDMIN0       =  0.300000000000000     ,
 RN_WDMIN1       =  0.200000000000000     ,
 RN_WDMIN2       =  1.000000000000000E-004,
 RN_WDLD =   2.50000000000000     ,
 NN_WDIT =          20,
 LN_WD_DL_BC     = F,
 LN_WD_DL_RMP    = F,
 RN_WD_SBCDEP    =   5.00000000000000     ,
 RN_WD_SBCFRA    =  0.999000000000000     
 /
 &NAMDOM
 LN_LINSSH       = F,
 RN_DT   =   30.0000000000000     ,
 RN_ATFP =  0.000000000000000E+000,
 LN_CRS  = F,
 LN_C1D  = F,
 LN_MESHMASK     = F
 /
 &NAMRUN
 CN_OCERST_INDIR = .                                                                                                                 
                                                                                                                                     
           ,
 CN_OCERST_OUTDIR        = .                                                                                                         
                                                                                                                                     
                   ,
 NN_STOCKLIST    = 10*0,
 LN_RST_LIST     = F,
 NN_NO   =           0,
 CN_EXP  = NORD_TEST                                                                                                                 
                                                                                                                                     
   ,
 CN_OCERST_IN    = restart                                                                                                           
                                                                                                                                     
           ,
 CN_OCERST_OUT   = restart                                                                                                           
                                                                                                                                     
           ,
 LN_RSTART       = T,
 NN_RSTCTL       =           0,
 NN_IT000        =           1,
 NN_ITEND        =       86400,
 NN_DATE0        =    20201002,
 NN_TIME0        =           0,
 NN_LEAPY        =           1,
 NN_ISTATE       =           0,
 NN_STOCK        =       20160,
 NN_WRITE        =        2880,
 LN_MSKLAND      = F,
 LN_CLOBBER      = T,
 NN_CHUNKSZ      =           0,
 LN_1ST_EULER    = T,
 LN_CFMETA       = F,
 LN_XIOS_READ    = T,
 NN_WXIOS        =           1
 /
 &NAMTILE
 LN_TILE = F,
 NN_LTILE_I      =       99999,
 NN_LTILE_J      =          10
 /
 &NAMLBC
 RN_SHLAT        =  0.000000000000000E+000,
 LN_VORLAT       = F
 /
 &NAM_VVL
 LN_VVL_ZSTAR    = T,
 LN_VVL_ZTILDE   = F,
 LN_VVL_LAYER    = F,
 LN_VVL_ZTILDE_AS_ZSTAR  = F,
 LN_VVL_ZSTAR_AT_EQTOR   = F,
 RN_AHE3 =  0.000000000000000E+000,
 RN_RST_E3T      =   30.0000000000000     ,
 RN_LF_CUTOFF    =   5.00000000000000     ,
 RN_ZDEF_MAX     =  0.900000000000000     ,
 LN_VVL_DBG      = F,
 NN_VVL_INTERP   =           2
 /
 &NAMTSD
 LN_TSD_INIT     = T,
 LN_TSD_DMP      = F,
 CN_DIR  = ./                                                                                                  ,
 SN_TEM%CLNAME  = data_tem_new_degen                                                                                                 
                                                                                                                                     
          ,
 SN_TEM%FREQH   =  -1.00000000000000     ,
 SN_TEM%CLVAR   = votemper                          ,
 SN_TEM%LN_TINT = T,
 SN_TEM%LN_CLIM = T,
 SN_TEM%CLFTYP  = yearly  ,
 SN_TEM%WNAME   =                                                                                                                    
                                                                                                                                     
          ,
 SN_TEM%VCOMP   =                                   ,
 SN_TEM%LNAME   =                                   ,
 SN_SAL%CLNAME  = data_sal_new_degen                                                                                                 
                                                                                                                                     
          ,
 SN_SAL%FREQH   =  -1.00000000000000     ,
 SN_SAL%CLVAR   = vosaline                          ,
 SN_SAL%LN_TINT = T,
 SN_SAL%LN_CLIM = T,
 SN_SAL%CLFTYP  = yearly  ,
 SN_SAL%WNAME   =                                                                                                                    
                                                                                                                                     
          ,
 SN_SAL%VCOMP   =                                   ,
 SN_SAL%LNAME   =                                   
 /
 &NAM_TIDE
 LN_TIDE = F,
 NN_TIDE_VAR     =           1,
 LN_TIDE_DIA     = F,
 LN_TIDE_POT     = F,
 RN_TIDE_GAMMA   =  0.700000000000000     ,
 LN_SCAL_LOAD    = F,
 LN_READ_LOAD    = F,
 CN_TIDE_LOAD    = tide_LOAD_grid_T.nc                                                                                               
                                                                                                                                     
           ,
 LN_TIDE_RAMP    = F,
 RN_SCAL_LOAD    =  9.400000000000000E-002,
 RN_TIDE_RAMP_DT =  0.000000000000000E+000,
 SN_TIDE_CNAMES  = DUMM                                                                                                              
                                                                                                                                     
           
 /
 &NAMSBC
 NN_FSBC =           1,
 LN_USR  = F,
 LN_FLX  = F,
 LN_BLK  = T,
 LN_ABL  = F,
 LN_CPL  = F,
 LN_MIXCPL       = F,
 NN_COMPONENTS   =           0,
 NN_ICE  =           2,
 LN_ICE_EMBD     = F,
 LN_TRAQSR       = T,
 LN_DM2DC        = F,
 LN_RNF  = F,
 NN_FWB  =           0,
 LN_SSR  = F,
 LN_APR_DYN      = T,
 LN_WAVE = F,
 NN_LSM  =           0
 /
 &NAMSBC_BLK
 LN_NCAR = T,
 LN_COARE_3P0    = F,
 LN_COARE_3P6    = F,
 LN_ECMWF        = F,
 LN_ANDREAS      = F,
 RN_ZQT  =   2.00000000000000     ,
 RN_ZU   =   10.0000000000000     ,
 NN_ITER_ALGO    =          15,
 LN_SKIN_CS      = F,
 LN_SKIN_WL      = F,
 RN_PFAC =   1.00000000000000     ,
 RN_EFAC =   1.00000000000000     ,
 LN_CRT_FBK      = F,
 RN_STAU_A       = -2.900000000000000E-003,
 RN_STAU_B       =  8.000000000000000E-003,
 LN_HUMI_SPH     = T,
 LN_HUMI_DPT     = F,
 LN_HUMI_RLH     = F,
 LN_TAIR_POT     = F,
 LN_CX_ICE_CST   = T,
 RN_CD_I =  1.400000000000000E-003,
 RN_CE_I =  1.400000000000000E-003,
 RN_CH_I =  1.400000000000000E-003,
 LN_CX_ICE_AN05  = F,
 LN_CX_ICE_LU12  = F,
 LN_CX_ICE_LG15  = F,
 CN_DIR  = ./                                                                                                  ,
 SN_WNDI%CLNAME  = FORCE                                                                                                             
                                                                                                                                     
           ,
 SN_WNDI%FREQH   =   1.00000000000000     ,
 SN_WNDI%CLVAR   = 10MetreUWindComponent             ,
 SN_WNDI%LN_TINT = T,
 SN_WNDI%LN_CLIM = F,
 SN_WNDI%CLFTYP  = daily   ,
 SN_WNDI%WNAME   = weights_bicubic                                                                                                   
                                                                                                                                     
           ,
 SN_WNDI%VCOMP   =                                   ,
 SN_WNDI%LNAME   =                                   ,
 SN_WNDJ%CLNAME  = FORCE                                                                                                             
                                                                                                                                     
           ,
 SN_WNDJ%FREQH   =   1.00000000000000     ,
 SN_WNDJ%CLVAR   = 10MetreVWindComponent             ,
 SN_WNDJ%LN_TINT = T,
 SN_WNDJ%LN_CLIM = F,
 SN_WNDJ%CLFTYP  = daily   ,
 SN_WNDJ%WNAME   = weights_bicubic                                                                                                   
                                                                                                                                     
           ,
 SN_WNDJ%VCOMP   =                                   ,
 SN_WNDJ%LNAME   =                                   ,
 SN_QSR%CLNAME  = FORCE                                                                                                              
                                                                                                                                     
          ,
 SN_QSR%FREQH   =   1.00000000000000     ,
 SN_QSR%CLVAR   = GlobalRadiationFlux               ,
 SN_QSR%LN_TINT = T,
 SN_QSR%LN_CLIM = F,
 SN_QSR%CLFTYP  = daily   ,
 SN_QSR%WNAME   = weights_bilin                                                                                                      
                                                                                                                                     
          ,
 SN_QSR%VCOMP   =                                   ,
 SN_QSR%LNAME   =                                   ,
 SN_QLW%CLNAME  = FORCE                                                                                                              
                                                                                                                                     
          ,
 SN_QLW%FREQH   =   1.00000000000000     ,
 SN_QLW%CLVAR   = LongWaveRadiationFlux             ,
 SN_QLW%LN_TINT = T,
 SN_QLW%LN_CLIM = F,
 SN_QLW%CLFTYP  = daily   ,
 SN_QLW%WNAME   = weights_bilin                                                                                                      
                                                                                                                                     
          ,
 SN_QLW%VCOMP   =                                   ,
 SN_QLW%LNAME   =                                   ,
 SN_TAIR%CLNAME  = FORCE                                                                                                             
                                                                                                                                     
           ,
 SN_TAIR%FREQH   =   1.00000000000000     ,
 SN_TAIR%CLVAR   = 2MetreTemperature                 ,
 SN_TAIR%LN_TINT = T,
 SN_TAIR%LN_CLIM = F,
 SN_TAIR%CLFTYP  = daily   ,
 SN_TAIR%WNAME   = weights_bilin                                                                                                     
                                                                                                                                     
           ,
 SN_TAIR%VCOMP   =                                   ,
 SN_TAIR%LNAME   =                                   ,
 SN_HUMI%CLNAME  = FORCE                                                                                                             
                                                                                                                                     
           ,
 SN_HUMI%FREQH   =   1.00000000000000     ,
 SN_HUMI%CLVAR   = SpecificHumidity                  ,
 SN_HUMI%LN_TINT = T,
 SN_HUMI%LN_CLIM = F,
 SN_HUMI%CLFTYP  = daily   ,
 SN_HUMI%WNAME   = weights_bilin                                                                                                     
                                                                                                                                     
           ,
 SN_HUMI%VCOMP   =                                   ,
 SN_HUMI%LNAME   =                                   ,
 SN_PREC%CLNAME  = FORCE                                                                                                             
                                                                                                                                     
           ,
 SN_PREC%FREQH   =   1.00000000000000     ,
 SN_PREC%CLVAR   = TotalPrecipitation                ,
 SN_PREC%LN_TINT = T,
 SN_PREC%LN_CLIM = F,
 SN_PREC%CLFTYP  = daily   ,
 SN_PREC%WNAME   = weights_bilin                                                                                                     
                                                                                                                                     
           ,
 SN_PREC%VCOMP   =                                   ,
 SN_PREC%LNAME   =                                   ,
 SN_SNOW%CLNAME  = FORCE                                                                                                             
                                                                                                                                     
           ,
 SN_SNOW%FREQH   =   1.00000000000000     ,
 SN_SNOW%CLVAR   = SnowFallRateWaterEquivalent       ,
 SN_SNOW%LN_TINT = T,
 SN_SNOW%LN_CLIM = F,
 SN_SNOW%CLFTYP  = daily   ,
 SN_SNOW%WNAME   = weights_bilin                                                                                                     
                                                                                                                                     
           ,
 SN_SNOW%VCOMP   =                                   ,
 SN_SNOW%LNAME   =                                   ,
 SN_SLP%CLNAME  = FORCE                                                                                                              
                                                                                                                                     
          ,
 SN_SLP%FREQH   =   1.00000000000000     ,
 SN_SLP%CLVAR   = Pressure                          ,
 SN_SLP%LN_TINT = T,
 SN_SLP%LN_CLIM = F,
 SN_SLP%CLFTYP  = daily   ,
 SN_SLP%WNAME   = weights_bilin                                                                                                      
                                                                                                                                     
          ,
 SN_SLP%VCOMP   =                                   ,
 SN_SLP%LNAME   =                                   ,
 SN_UOATM%CLNAME  = NOT USED                                                                                                         
                                                                                                                                     
            ,
 SN_UOATM%FREQH   =   6.00000000000000     ,
 SN_UOATM%CLVAR   = UOATM                             ,
 SN_UOATM%LN_TINT = F,
 SN_UOATM%LN_CLIM = T,
 SN_UOATM%CLFTYP  = yearly  ,
 SN_UOATM%WNAME   = weights_core_orca2_bilinear_noc.nc                                                                               
                                                                                                                                     
            ,
 SN_UOATM%VCOMP   = Uoceatm                           ,
 SN_UOATM%LNAME   =                                   ,
 SN_VOATM%CLNAME  = NOT USED                                                                                                         
                                                                                                                                     
            ,
 SN_VOATM%FREQH   =   6.00000000000000     ,
 SN_VOATM%CLVAR   = VOATM                             ,
 SN_VOATM%LN_TINT = F,
 SN_VOATM%LN_CLIM = T,
 SN_VOATM%CLFTYP  = yearly  ,
 SN_VOATM%WNAME   = weights_core_orca2_bilinear_noc.nc                                                                               
                                                                                                                                     
            ,
 SN_VOATM%VCOMP   = Voceatm                           ,
 SN_VOATM%LNAME   =                                   ,
 SN_CC%CLNAME  = NOT USED                                                                                                            
                                                                                                                                     
         ,
 SN_CC%FREQH   =   24.0000000000000     ,
 SN_CC%CLVAR   = CC                                ,
 SN_CC%LN_TINT = F,
 SN_CC%LN_CLIM = T,
 SN_CC%CLFTYP  = yearly  ,
 SN_CC%WNAME   = weights_core_orca2_bilinear_noc.nc                                                                                  
                                                                                                                                     
         ,
 SN_CC%VCOMP   =                                   ,
 SN_CC%LNAME   =                                   ,
 SN_HPGI%CLNAME  = NOT USED                                                                                                          
                                                                                                                                     
           ,
 SN_HPGI%FREQH   =   24.0000000000000     ,
 SN_HPGI%CLVAR   = uhpg                              ,
 SN_HPGI%LN_TINT = F,
 SN_HPGI%LN_CLIM = F,
 SN_HPGI%CLFTYP  = monthly ,
 SN_HPGI%WNAME   = weights_ERAI3D_F128_2_ORCA2_bicubic                                                                               
                                                                                                                                     
           ,
 SN_HPGI%VCOMP   = UG                                ,
 SN_HPGI%LNAME   =                                   ,
 SN_HPGJ%CLNAME  = NOT USED                                                                                                          
                                                                                                                                     
           ,
 SN_HPGJ%FREQH   =   24.0000000000000     ,
 SN_HPGJ%CLVAR   = vhpg                              ,
 SN_HPGJ%LN_TINT = F,
 SN_HPGJ%LN_CLIM = F,
 SN_HPGJ%CLFTYP  = monthly ,
 SN_HPGJ%WNAME   = weights_ERAI3D_F128_2_ORCA2_bicubic                                                                               
                                                                                                                                     
           ,
 SN_HPGJ%VCOMP   = VG                                ,
 SN_HPGJ%LNAME   =                                   ,
 RN_CDFAC        =   1.10000000000000     ,
 RN_LWADD        =  0.000000000000000E+000
 /
 &NAMSBC_APR
 CN_DIR  = ./                                                                                                  ,
 SN_APR%CLNAME  = FORCE                                                                                                              
                                                                                                                                     
          ,
 SN_APR%FREQH   =   1.00000000000000     ,
 SN_APR%CLVAR   = Pressure                          ,
 SN_APR%LN_TINT = T,
 SN_APR%LN_CLIM = F,
 SN_APR%CLFTYP  = daily   ,
 SN_APR%WNAME   = weights_bilin                                                                                                      
                                                                                                                                     
          ,
 SN_APR%VCOMP   =                                   ,
 SN_APR%LNAME   =                                   ,
 LN_REF_APR      = F,
 RN_PREF =   101000.000000000     ,
 LN_APR_OBC      = F
 /
 &NAMBDY
 LN_BDY  = T,
 NB_BDY  =           1,
 LN_COORDS_FILE  = 10*T,
 CN_COORDS_FILE  = coordinates.bdy.nc                                                              coordinates.bdy.nc                
                                               coordinates.bdy.nc                                                              coordi
 nates.bdy.nc                                                              coordinates.bdy.nc                                        
                       coordinates.bdy.nc                                                              coordinates.bdy.nc            
                                                   coordinates.bdy.nc                                                              co
 ordinates.bdy.nc                                                              coordinates.bdy.nc                                    
                           ,
 LN_MASK_FILE    = F,
 CN_MASK_FILE    =                                                                                 ,
 CN_DYN2D        = flather             flather             flather             flather             flather             flather       
       flather             flather             flather             flather             ,
 NN_DYN2D_DTA    = 10*1,
 CN_DYN3D        = none                none                none                none                none                none          
       none                none                none                none                ,
 NN_DYN3D_DTA    = 10*0,
 CN_TRA  = frs                 frs                 frs                 frs                 frs                 frs                 fr
 s                 frs                 frs                 frs                 ,
 NN_TRA_DTA      = 10*1,
 LN_TRA_DMP      = 10*F,
 LN_DYN3D_DMP    = 10*F,
 RN_TIME_DMP     = 10*1.00000000000000        ,
 RN_TIME_DMP_OUT = 10*1.00000000000000        ,
 CN_ICE  = none                none                none                none                none                none                no
 ne                none                none                none                ,
 NN_ICE_DTA      = 10*0,
 LN_VOL  = F,
 NN_VOLCTL       =           1,
 NN_RIMWIDTH     =           1, 9*0
 /
 &NAMBDY_DTA
 CN_DIR  = ./                                                                                                  ,
 BN_TEM%CLNAME  = bdy_ts                                                                                                             
                                                                                                                                     
          ,
 BN_TEM%FREQH   =   1.00000000000000     ,
 BN_TEM%CLVAR   = votemper                          ,
 BN_TEM%LN_TINT = T,
 BN_TEM%LN_CLIM = F,
 BN_TEM%CLFTYP  = daily   ,
 BN_TEM%WNAME   =                                                                                                                    
                                                                                                                                     
          ,
 BN_TEM%VCOMP   =                                   ,
 BN_TEM%LNAME   =                                   ,
 BN_SAL%CLNAME  = bdy_ts                                                                                                             
                                                                                                                                     
          ,
 BN_SAL%FREQH   =   1.00000000000000     ,
 BN_SAL%CLVAR   = vosaline                          ,
 BN_SAL%LN_TINT = T,
 BN_SAL%LN_CLIM = F,
 BN_SAL%CLFTYP  = daily   ,
 BN_SAL%WNAME   =                                                                                                                    
                                                                                                                                     
          ,
 BN_SAL%VCOMP   =                                   ,
 BN_SAL%LNAME   =                                   ,
 BN_U3D%CLNAME  =                                                                                                                    
                                                                                                                                     
          ,
 BN_U3D%FREQH   =  0.000000000000000E+000,
 BN_U3D%CLVAR   =                                   ,
 BN_U3D%LN_TINT = F,
 BN_U3D%LN_CLIM = F,
 BN_U3D%CLFTYP  =         ,
 BN_U3D%WNAME   =                                                                                                                    
                                                                                                                                     
          ,
 BN_U3D%VCOMP   =                                   ,
 BN_U3D%LNAME   =                                   ,
 BN_V3D%CLNAME  =                                                                                                                    
                                                                                                                                     
          ,
 BN_V3D%FREQH   =  0.000000000000000E+000,
 BN_V3D%CLVAR   =                                   ,
 BN_V3D%LN_TINT = F,
 BN_V3D%LN_CLIM = F,
 BN_V3D%CLFTYP  =         ,
 BN_V3D%WNAME   =                                                                                                                    
                                                                                                                                     
          ,
 BN_V3D%VCOMP   =                                   ,
 BN_V3D%LNAME   =                                   ,
 BN_SSH%CLNAME  = bdy_uvh                                                                                                            
                                                                                                                                     
          ,
 BN_SSH%FREQH   =   1.00000000000000     ,
 BN_SSH%CLVAR   = SSH_inst                          ,
 BN_SSH%LN_TINT = T,
 BN_SSH%LN_CLIM = F,
 BN_SSH%CLFTYP  = daily   ,
 BN_SSH%WNAME   =                                                                                                                    
                                                                                                                                     
          ,
 BN_SSH%VCOMP   =                                   ,
 BN_SSH%LNAME   =                                   ,
 BN_U2D%CLNAME  = bdy_uvh                                                                                                            
                                                                                                                                     
          ,
 BN_U2D%FREQH   =   1.00000000000000     ,
 BN_U2D%CLVAR   = UOS_inst                          ,
 BN_U2D%LN_TINT = T,
 BN_U2D%LN_CLIM = F,
 BN_U2D%CLFTYP  = daily   ,
 BN_U2D%WNAME   =                                                                                                                    
                                                                                                                                     
          ,
 BN_U2D%VCOMP   =                                   ,
 BN_U2D%LNAME   =                                   ,
 BN_V2D%CLNAME  = bdy_uvh                                                                                                            
                                                                                                                                     
          ,
 BN_V2D%FREQH   =   1.00000000000000     ,
 BN_V2D%CLVAR   = VOS_inst                          ,
 BN_V2D%LN_TINT = T,
 BN_V2D%LN_CLIM = F,
 BN_V2D%CLFTYP  = daily   ,
 BN_V2D%WNAME   =                                                                                                                    
                                                                                                                                     
          ,
 BN_V2D%VCOMP   =                                   ,
 BN_V2D%LNAME   =                                   ,
 BN_A_I%CLNAME  = amm12_bdyT_ice                                                                                                     